# =========================
# pkg AUTODIFF parameters :
# =========================
#  inAdExact :: get an exact adjoint (no approximation) (def=.True.)
#
 &AUTODIFF_PARM01
# inAdExact = .FALSE.,
# dumpAdVarExch = 2,
## the flag below needs to be false for adjdump in data to work
  dumpAdByRec   = .FALSE.,
 &
