# Packages
 &PACKAGES
  useKPP    = .TRUE.,
  useEXF    = .TRUE.,
  useSEAICE = .TRUE.,
  useECCO   = .TRUE.,
  useGrdchk = .FALSE.,

  useMNC         = .FALSE.,
  useDiagnostics = .FALSE.,
  useCAL         = .TRUE.,
 &
